Version 4
SHEET 1 880 680
WIRE 272 -240 160 -240
WIRE 384 -240 272 -240
WIRE 160 -192 160 -240
WIRE 384 -176 384 -240
WIRE 160 -32 160 -112
WIRE 384 -32 384 -96
WIRE 96 16 64 16
WIRE 192 64 160 64
WIRE 384 64 192 64
WIRE 64 96 64 16
WIRE 192 128 192 64
FLAG 64 176 0
FLAG 320 16 0
FLAG 272 -160 0
FLAG 192 288 0
SYMBOL res 176 112 R0
SYMATTR InstName R1
SYMATTR Value 2k
SYMBOL voltage 64 80 R0
WINDOW 123 0 0 Left 0
WINDOW 39 0 0 Left 0
SYMATTR InstName V1
SYMATTR Value SINE(0 40mV 3k)
SYMBOL npn 96 -32 R0
SYMATTR InstName Q1
SYMATTR Value BC547B
SYMBOL npn 320 -32 R0
SYMATTR InstName Q2
SYMATTR Value BC547B
SYMBOL res 144 -208 R0
SYMATTR InstName R2
SYMATTR Value 1k
SYMBOL res 368 -192 R0
SYMATTR InstName R3
SYMATTR Value 1k
SYMBOL voltage 272 -256 R0
WINDOW 123 0 0 Left 0
WINDOW 39 0 0 Left 0
SYMATTR InstName V2
SYMATTR Value 1.8V
SYMBOL voltage 192 192 R0
WINDOW 123 0 0 Left 0
WINDOW 39 0 0 Left 0
SYMATTR InstName V3
SYMATTR Value -1.8V
TEXT 30 224 Left 2 !.tran 10ms
